Version 4
SHEET 1 880 680
WIRE -112 128 -224 128
WIRE 64 128 64 48
WIRE 64 128 32 128
WIRE 80 128 64 128
WIRE 256 128 256 48
WIRE 256 128 224 128
WIRE 288 128 256 128
WIRE 464 128 464 48
WIRE 464 128 432 128
WIRE 496 128 464 128
WIRE 688 128 640 128
WIRE -224 160 -224 128
WIRE -224 288 -224 240
FLAG -224 288 0
FLAG 688 128 out_final
IOPIN 688 128 Out
FLAG 464 48 out3
IOPIN 464 48 Out
FLAG 256 48 out2
IOPIN 256 48 Out
FLAG 64 48 out1
IOPIN 64 48 Out
SYMBOL voltage -224 144 R0
WINDOW 123 24 124 Left 2
WINDOW 39 0 0 Left 0
WINDOW 3 24 152 Left 2
SYMATTR Value2 AC 1
SYMATTR Value SINE(0 0.26 1.73k)
SYMATTR InstName V1
SYMBOL etaj1 -48 128 R0
WINDOW 0 6 -27 Bottom 2
SYMATTR InstName X1
SYMBOL etaj2 144 128 R0
SYMATTR InstName X2
SYMBOL etaj3 352 128 R0
SYMATTR InstName X3
SYMBOL etaj4 560 128 R0
SYMATTR InstName X4
TEXT 640 328 Left 2 !.ac dec 100 1 10Meg
TEXT 640 288 Left 2 !.op
TEXT 640 256 Left 2 !;tran 1m
