Version 4
SHEET 1 880 680
WIRE 160 -32 -272 -32
WIRE 656 -32 240 -32
WIRE -560 48 -560 16
WIRE -272 64 -272 -32
WIRE -224 64 -272 64
WIRE -112 64 -144 64
WIRE -272 144 -272 64
WIRE -224 144 -272 144
WIRE -112 144 -112 64
WIRE -112 144 -160 144
WIRE 160 144 64 144
WIRE 240 144 224 144
WIRE 464 160 416 160
WIRE 656 160 656 -32
WIRE 656 160 544 160
WIRE -736 192 -736 144
WIRE -624 192 -624 144
WIRE -272 224 -272 144
WIRE -272 224 -320 224
WIRE -224 224 -272 224
WIRE -112 240 -112 144
WIRE -112 240 -160 240
WIRE -80 240 -112 240
WIRE 64 240 64 144
WIRE 64 240 0 240
WIRE 112 240 64 240
WIRE -224 256 -256 256
WIRE 240 256 240 144
WIRE 240 256 176 256
WIRE 288 256 240 256
WIRE 416 256 416 160
WIRE 416 256 368 256
WIRE 496 256 416 256
WIRE 112 272 64 272
WIRE 656 272 656 160
WIRE 656 272 560 272
WIRE 496 288 464 288
WIRE -112 320 -112 240
WIRE -736 336 -736 272
WIRE -624 336 -624 272
WIRE -256 352 -256 256
WIRE 64 352 64 272
WIRE 464 368 464 288
FLAG -256 352 0
FLAG 64 352 0
FLAG 464 368 0
FLAG -192 208 VCC
FLAG 144 224 VCC
FLAG 528 240 VCC
FLAG -192 272 -VCC
FLAG 144 288 -VCC
FLAG 528 304 -VCC
FLAG -400 224 in2
IOPIN -400 224 In
FLAG -112 320 out2
IOPIN -112 320 Out
FLAG -560 48 0
FLAG -560 -64 in2
IOPIN -560 -64 In
FLAG -736 144 VCC
FLAG -624 144 -VCC
FLAG -736 336 0
FLAG -624 336 0
SYMBOL res -304 208 R90
WINDOW 0 0 56 VBottom 2
WINDOW 3 32 56 VTop 2
SYMATTR InstName R1
SYMATTR Value 63.7k
SYMBOL res 256 -48 R90
WINDOW 0 0 56 VBottom 2
WINDOW 3 32 56 VTop 2
SYMATTR InstName R2
SYMATTR Value 36.8k
SYMBOL res 384 240 R90
WINDOW 0 0 56 VBottom 2
WINDOW 3 32 56 VTop 2
SYMATTR InstName R3
SYMATTR Value 10k
SYMBOL res 16 224 R90
WINDOW 0 0 56 VBottom 2
WINDOW 3 32 56 VTop 2
SYMATTR InstName R4
SYMATTR Value 36.8k
SYMBOL res -128 48 R90
WINDOW 0 0 56 VBottom 2
WINDOW 3 32 56 VTop 2
SYMATTR InstName R5
SYMATTR Value 63.7k
SYMBOL res 560 144 R90
WINDOW 0 0 56 VBottom 2
WINDOW 3 32 56 VTop 2
SYMATTR InstName R6
SYMATTR Value 10k
SYMBOL cap 224 128 R90
WINDOW 0 0 32 VBottom 2
WINDOW 3 32 32 VTop 2
SYMATTR InstName C1
SYMATTR Value 2.5n
SYMBOL cap -160 128 R90
WINDOW 0 0 32 VBottom 2
WINDOW 3 32 32 VTop 2
SYMATTR InstName C2
SYMATTR Value 2.5n
SYMBOL OpAmps\\LT1679 -192 240 R0
SYMATTR InstName U1
SYMBOL OpAmps\\LT1679 144 256 R0
SYMATTR InstName U2
SYMBOL OpAmps\\LT1679 528 272 R0
SYMATTR InstName U3
SYMBOL Misc\\signal -560 -80 R0
WINDOW 123 24 132 Left 2
WINDOW 39 0 0 Left 0
SYMATTR Value2 AC 1
SYMATTR InstName V1
SYMATTR Value SINE(0 0.26 1.73K)
SYMBOL voltage -736 176 R0
WINDOW 123 0 0 Left 0
WINDOW 39 0 0 Left 0
SYMATTR InstName V2
SYMATTR Value 18
SYMBOL voltage -624 176 R0
WINDOW 123 0 0 Left 0
WINDOW 39 0 0 Left 0
SYMATTR InstName V3
SYMATTR Value -18
TEXT 192 -288 Left 2 ;ETAJ  2
TEXT -184 -168 Left 2 !;param gbw 10000Meg
TEXT -184 -200 Left 2 !;step param gbw list 4Meg 10Meg 20Meg
TEXT -184 -136 Left 2 !.ac dec 100 0.1 10Meg
TEXT -184 -104 Left 2 !;op
TEXT -608 -240 Left 2 !.four 1.73k 10 V(out2)
TEXT -632 -200 Left 2 !;tran 1m
