Version 4
SHEET 1 880 680
WIRE 128 48 16 48
WIRE 240 48 128 48
WIRE 368 48 320 48
WIRE 464 48 368 48
WIRE 512 48 464 48
WIRE 368 128 368 48
WIRE 464 160 464 48
WIRE -432 224 -432 176
WIRE -320 224 -320 176
WIRE 128 256 128 48
WIRE 160 256 128 256
WIRE -208 272 -208 240
WIRE 368 272 368 192
WIRE 368 272 224 272
WIRE 160 288 112 288
WIRE 464 304 464 240
WIRE 368 320 368 272
WIRE 112 352 112 288
WIRE -432 368 -432 304
WIRE -320 368 -320 304
WIRE 368 432 368 384
FLAG 464 304 0
FLAG 368 432 0
FLAG 112 352 0
FLAG 192 304 -VCC
FLAG 192 240 VCC
FLAG -208 272 0
FLAG -208 160 in4
IOPIN -208 160 In
FLAG -64 48 in4
IOPIN -64 48 In
FLAG 512 48 out4
IOPIN 512 48 Out
FLAG -432 176 VCC
FLAG -320 176 -VCC
FLAG -432 368 0
FLAG -320 368 0
SYMBOL res 448 144 R0
SYMATTR InstName RL1
SYMATTR Value 20k
SYMBOL res 32 32 R90
WINDOW 0 0 56 VBottom 2
WINDOW 3 32 56 VTop 2
SYMATTR InstName R1
SYMATTR Value 10k
SYMBOL res 336 32 R90
WINDOW 0 0 56 VBottom 2
WINDOW 3 32 56 VTop 2
SYMATTR InstName R2
SYMATTR Value 10k
SYMBOL diode 384 192 R180
WINDOW 0 24 64 Left 2
WINDOW 3 24 0 Left 2
SYMATTR InstName D1
SYMBOL diode 384 384 R180
WINDOW 0 24 64 Left 2
WINDOW 3 24 0 Left 2
SYMATTR InstName D2
SYMBOL OpAmps\\LT1679 192 272 R0
SYMATTR InstName U1
SYMBOL Misc\\signal -208 144 R0
WINDOW 123 24 132 Left 2
WINDOW 39 0 0 Left 0
SYMATTR Value2 AC 1
SYMATTR InstName V1
SYMATTR Value SINE(0 0.26 1.73K)
SYMBOL voltage -432 208 R0
WINDOW 123 0 0 Left 0
WINDOW 39 0 0 Left 0
SYMATTR InstName V2
SYMATTR Value 18
SYMBOL voltage -320 208 R0
WINDOW 123 0 0 Left 0
WINDOW 39 0 0 Left 0
SYMATTR InstName V3
SYMATTR Value -18
TEXT 240 -72 Left 2 ;ETAJ 4
TEXT -144 -40 Left 2 !;ac dec 100 0.1 10Meg
TEXT -400 16 Left 2 !.tran 1m
TEXT -432 72 Left 2 !.four 1.73k 10 V(out4)
TEXT -144 -8 Left 2 !.op
