Version 4
SHEET 1 880 680
WIRE -384 0 -384 -32
WIRE 240 0 144 0
WIRE 368 0 320 0
WIRE 512 0 368 0
WIRE 624 0 592 0
WIRE -304 144 -304 96
WIRE -192 144 -192 96
WIRE 368 144 368 0
WIRE 400 144 368 144
WIRE 624 160 624 0
WIRE 624 160 464 160
WIRE 656 160 624 160
WIRE 400 176 336 176
WIRE 336 272 336 176
WIRE -304 288 -304 224
WIRE -192 288 -192 224
WIRE -48 368 -48 304
WIRE 48 368 -48 368
WIRE 208 368 128 368
WIRE 336 368 336 352
WIRE 336 368 208 368
WIRE -48 400 -48 368
WIRE 208 416 208 368
FLAG -304 96 VCC
FLAG -192 96 -VCC
FLAG 432 128 VCC
FLAG 432 192 -VCC
FLAG -304 288 0
FLAG -192 288 0
FLAG -48 224 VCC
FLAG -48 480 -VCC
FLAG 208 496 0
FLAG 144 0 in1
IOPIN 144 0 In
FLAG 656 160 out1
IOPIN 656 160 Out
FLAG -384 0 0
FLAG -384 -112 in1
IOPIN -384 -112 In
DATAFLAG 640 160 ""
DATAFLAG 368 176 ""
SYMBOL voltage -304 128 R0
WINDOW 123 0 0 Left 0
WINDOW 39 0 0 Left 0
SYMATTR InstName V1
SYMATTR Value 18
SYMBOL voltage -192 128 R0
WINDOW 123 0 0 Left 0
WINDOW 39 0 0 Left 0
SYMATTR InstName V2
SYMATTR Value -18
SYMBOL res 320 256 R0
SYMATTR InstName R1
SYMATTR Value 1.8K
SYMBOL res 192 400 R0
SYMATTR InstName R2
SYMATTR Value 10
SYMBOL res 608 -16 R90
WINDOW 0 0 56 VBottom 2
WINDOW 3 32 56 VTop 2
SYMATTR InstName R3
SYMATTR Value 26K
SYMBOL res 336 -16 R90
WINDOW 0 0 56 VBottom 2
WINDOW 3 32 56 VTop 2
SYMATTR InstName R4
SYMATTR Value 2K
SYMBOL res 32 384 R270
WINDOW 0 32 56 VTop 2
WINDOW 3 0 56 VBottom 2
SYMATTR InstName R5
SYMATTR Value 10K
SYMBOL res -64 384 R0
SYMATTR InstName R6
SYMATTR Value {10k*(1-a)}
SYMBOL res -64 208 R0
SYMATTR InstName R7
SYMATTR Value {10k*a}
SYMBOL OpAmps\\LT1679 432 160 R0
SYMATTR InstName U1
SYMBOL Misc\\signal -384 -128 R0
WINDOW 123 24 132 Left 2
WINDOW 39 0 0 Left 0
SYMATTR Value2 AC 1
SYMATTR InstName V3
SYMATTR Value SINE(0 0.26 1.73K)
TEXT -88 -128 Left 2 !;dc V3 -18 18 0.001
TEXT -80 -96 Left 2 !.op
TEXT 272 -208 Left 2 !.param a=0.5001
TEXT 272 -240 Left 2 !.ac dec 100 0.1 10Meg
TEXT -72 -256 Left 2 !;tran 1m
TEXT -80 -224 Left 2 !.four 1.73k 10 V(out1)
