Version 4
SHEET 1 1336 1524
WIRE -32 -592 -112 -592
WIRE 288 -592 160 -592
WIRE 384 -592 368 -592
WIRE 128 -384 128 -416
WIRE -112 -240 -112 -592
WIRE -32 -240 -112 -240
WIRE 384 -240 384 -592
WIRE 384 -240 160 -240
WIRE 416 -240 384 -240
WIRE 544 -240 496 -240
WIRE 128 -32 128 -64
WIRE -112 144 -112 -240
WIRE -32 144 -112 144
WIRE 544 144 544 -240
WIRE 544 144 160 144
WIRE 592 144 544 144
WIRE 720 144 672 144
WIRE 128 352 128 320
WIRE -112 496 -112 144
WIRE -32 496 -112 496
WIRE 720 496 720 144
WIRE 720 496 160 496
WIRE 768 496 720 496
WIRE 912 496 848 496
WIRE 128 704 128 672
WIRE -112 848 -112 496
WIRE -32 848 -112 848
WIRE 912 848 912 496
WIRE 912 848 160 848
WIRE 992 848 912 848
WIRE 128 1056 128 1024
WIRE -256 1184 -304 1184
WIRE -112 1184 -112 848
WIRE -112 1184 -176 1184
WIRE 48 1184 -112 1184
WIRE 1072 1200 1072 848
WIRE 1072 1200 112 1200
WIRE 1120 1200 1072 1200
WIRE 48 1216 -16 1216
WIRE -304 1248 -304 1184
WIRE 592 1360 592 1296
WIRE 272 1376 272 1328
WIRE 384 1376 384 1328
WIRE 688 1376 688 1312
WIRE 832 1376 832 1328
WIRE 960 1376 960 1328
WIRE 1088 1376 1088 1328
WIRE -176 1424 -176 1392
WIRE 592 1488 592 1440
WIRE 272 1504 272 1456
WIRE 384 1504 384 1456
WIRE 688 1504 688 1456
WIRE 832 1504 832 1456
WIRE 960 1504 960 1456
WIRE 1088 1504 1088 1456
FLAG -304 1248 0
FLAG 128 -384 0
FLAG 128 -32 0
FLAG 128 352 0
FLAG 128 704 0
FLAG 128 1056 0
FLAG 272 1504 0
FLAG 384 1504 0
FLAG 592 1488 0
FLAG 688 1504 0
FLAG 832 1504 0
FLAG 960 1504 0
FLAG 1088 1504 0
FLAG 272 1328 VDD
FLAG 384 1328 VSS
FLAG 592 1296 S1
FLAG 688 1312 S2
FLAG 832 1328 S3
FLAG 960 1328 S4
FLAG 1088 1328 S5
FLAG -32 -528 S5
FLAG -32 -176 S4
FLAG -32 208 S3
FLAG -32 560 S2
FLAG -32 912 S1
FLAG 64 -672 VDD
FLAG 64 -320 VDD
FLAG 64 64 VDD
FLAG 64 416 VDD
FLAG 64 768 VDD
FLAG 0 1024 VSS
FLAG 0 672 VSS
FLAG 0 320 VSS
FLAG 0 -64 VSS
FLAG 0 -416 VSS
FLAG 80 1168 VDD
FLAG 80 1232 VSS
FLAG -176 1424 0
FLAG -16 1216 in3
IOPIN -16 1216 In
FLAG -176 1312 in3
IOPIN -176 1312 In
FLAG 1120 1200 out3
IOPIN 1120 1200 Out
SYMBOL res 1088 832 R90
WINDOW 0 0 56 VBottom 2
WINDOW 3 32 56 VTop 2
SYMATTR InstName R1
SYMATTR Value 7.8k
SYMBOL res -160 1168 R90
WINDOW 0 0 56 VBottom 2
WINDOW 3 32 56 VTop 2
SYMATTR InstName RG1
SYMATTR Value 10k
SYMBOL Switches\\ADG1212 64 896 R0
SYMATTR InstName U1
SYMBOL Switches\\ADG1212 64 192 R0
SYMATTR InstName U3
SYMBOL Switches\\ADG1212 64 -192 R0
SYMATTR InstName U4
SYMBOL Switches\\ADG1212 64 -544 R0
SYMATTR InstName U5
SYMBOL res 864 480 R90
WINDOW 0 0 56 VBottom 2
WINDOW 3 32 56 VTop 2
SYMATTR InstName R2
SYMATTR Value 4.6k
SYMBOL res 688 128 R90
WINDOW 0 0 56 VBottom 2
WINDOW 3 32 56 VTop 2
SYMATTR InstName R3
SYMATTR Value 5.8k
SYMBOL res 384 -608 R90
WINDOW 0 0 56 VBottom 2
WINDOW 3 32 56 VTop 2
SYMATTR InstName R5
SYMATTR Value 9.2k
SYMBOL res 512 -256 R90
WINDOW 0 0 56 VBottom 2
WINDOW 3 32 56 VTop 2
SYMATTR InstName R4
SYMATTR Value 7.3k
SYMBOL voltage 272 1360 R0
WINDOW 123 0 0 Left 0
WINDOW 39 0 0 Left 0
SYMATTR InstName V1
SYMATTR Value 18
SYMBOL voltage 384 1360 R0
WINDOW 123 0 0 Left 0
WINDOW 39 0 0 Left 0
SYMATTR InstName V2
SYMATTR Value -18
SYMBOL voltage 592 1344 R0
WINDOW 123 0 0 Left 0
WINDOW 39 0 0 Left 0
SYMATTR InstName V3
SYMATTR Value 0
SYMBOL voltage 688 1360 R0
WINDOW 123 0 0 Left 0
WINDOW 39 0 0 Left 0
SYMATTR InstName V4
SYMATTR Value 0
SYMBOL voltage 832 1360 R0
WINDOW 123 0 0 Left 0
WINDOW 39 0 0 Left 0
SYMATTR InstName V5
SYMATTR Value 0
SYMBOL voltage 960 1360 R0
WINDOW 123 0 0 Left 0
WINDOW 39 0 0 Left 0
SYMATTR InstName V6
SYMATTR Value 0
SYMBOL voltage 1088 1360 R0
WINDOW 123 0 0 Left 0
WINDOW 39 0 0 Left 0
SYMATTR InstName V7
SYMATTR Value 10
SYMBOL OpAmps\\LT1679 80 1200 R0
SYMATTR InstName U7
SYMBOL Misc\\signal -176 1296 R0
WINDOW 123 24 132 Left 2
WINDOW 39 0 0 Left 0
SYMATTR Value2 AC 1
SYMATTR InstName V8
SYMATTR Value SINE(0 0.26 1.73K)
SYMBOL Switches\\ADG1212 64 544 R0
SYMATTR InstName U2
TEXT 112 -1024 Left 2 ;ETAJ  3
TEXT -552 1048 Left 2 !;ac dec 100 0.1 10Meg
TEXT -552 1112 Left 2 !.op
TEXT -552 984 Left 2 !.tran 1m
TEXT -552 1016 Left 2 !.four 1.73k 10 V(out3)
